SOL 101
CEND
ECHO=PUNCH
$ - - - - - - - - - - - - - - - - - - - - - - - - - - - - - - - - - - - +
BEGIN BULK
$
GRID, 1,, 0.0, 0.0, 0.0
=,*11,,*.10,==
=9
GRID, 2,, 0.0, 0.1, 0.0
=,*11,,*.10,==
=9
GRID, 3,, 0.0, 0.2, 0.0
=,*11,,*.10,==
=9
GRID, 4,, 0.0, 0.3, 0.0
=,*11,,*.10,==
=9
GRID, 5,, 0.0, 0.4, 0.0
=,*11,,*.10,==
=9
GRID, 6,, 0.0, 0.5, 0.0
=,*11,,*.10,==
=9
GRID, 7,, 0.0, 0.6, 0.0
=,*11,,*.10,==
=9
GRID, 8,, 0.0, 0.7, 0.0
=,*11,,*.10,==
=9
GRID, 9,, 0.0, 0.8, 0.0
=,*11,,*.10,==
=9
GRID, 10,, 0.0, 0.9, 0.0
=,*11,,*.10,==
=9
GRID, 11,, 0.0, 1.0, 0.0
=,*11,,*.10,==
=9
$ - - - - - - - - - - - - - - - - - - - - - - - - - - - - - - - - - - - +
CQUAD4, 1,1,1,2,13,12
=,*1,=,*11,*11,*11,*11
=8
CQUAD4, 11,1,2,3,14,13
=,*1,=,*11,*11,*11,*11
=8
CQUAD4, 21,1,3,4,15,14
=,*1,=,*11,*11,*11,*11
=8
CQUAD4, 31,1,4,5,16,15
=,*1,=,*11,*11,*11,*11
=8
CQUAD4, 41,1,5,6,17,16
=,*1,=,*11,*11,*11,*11
=8
CQUAD4, 51,1,6,7,18,17
=,*1,=,*11,*11,*11,*11
=8
CQUAD4, 61,1,7,8,19,18
=,*1,=,*11,*11,*11,*11
=8
CQUAD4, 71,1,8,9,20,19
=,*1,=,*11,*11,*11,*11
=8
CQUAD4, 81,1,9,10,21,20
=,*1,=,*11,*11,*11,*11
=8
CQUAD4, 91,1,10,11,22,21
=,*1,=,*11,*11,*11,*11
=8
$ - - - - - - - - - - - - - - - - - - - - - - - - - - - - - - - - - - - +
PSHELL   1       1      5.       1               1

$ Materials - - - - - - - - - - - - - - - - - - - - - - - - - - - - - - +
MAT1     1      70000.          .33

ENDDATA
$- - - - - - - - - - - - - - - - - - - - - - - - - - - - - - - - - - - - - - - - - - - - - +

Under MSC.Patran the MSC.Nastran Reader (File > Import) leads to the next mesh :

 11 ----  22 ----  33 ----  44 ----  55 ----  66 ----  77 ----  88 ----  99 ---- 110 ---- 121 
 |        |        |        |        |        |        |        |        |        |        |  
 |   91   |   92   |   93   |   94   |   95   |   96   |   97   |   98   |   99   |  100   |  
 |        |        |        |        |        |        |        |        |        |        |  
 10 ----  21 ----  32 ----  43 ----  54 ----  65 ----  76 ----  87 ----  98 ---- 109 ---- 120 
 |        |        |        |        |        |        |        |        |        |        |  
 |   81   |   82   |   83   |   84   |   85   |   86   |   87   |   88   |   89   |   90   |  
 |        |        |        |        |        |        |        |        |        |        |  
  9 ----  20 ----  31 ----  42 ----  53 ----  64 ----  75 ----  86 ----  97 ---- 108 ---- 119 
 |        |        |        |        |        |        |        |        |        |        |  
 |   71   |   72   |   73   |   74   |   75   |   76   |   77   |   78   |   79   |   80   |  
 |        |        |        |        |        |        |        |        |        |        |  
  8 ----  19 ----  30 ----  41 ----  52 ----  63 ----  74 ----  85 ----  96 ---- 107 ---- 118 
 |        |        |        |        |        |        |        |        |        |        |  
 |   61   |   62   |   63   |   64   |   65   |   66   |   67   |   68   |   69   |   70   |  
 |        |        |        |        |        |        |        |        |        |        |  
  7 ----  18 ----  29 ----  40 ----  51 ----  62 ----  73 ----  84 ----  95 ---- 106 ---- 117 
 |        |        |        |        |        |        |        |        |        |        |  
 |   51   |   52   |   53   |   54   |   55   |   56   |   57   |   58   |   59   |   60   |  
 |        |        |        |        |        |        |        |        |        |        |  
  6 ----  17 ----  28 ----  39 ----  50 ----  61 ----  72 ----  83 ----  94 ---- 105 ---- 116 
 |        |        |        |        |        |        |        |        |        |        |  
 |   41   |   42   |   43   |   44   |   45   |   46   |   47   |   48   |   49   |   50   |  
 |        |        |        |        |        |        |        |        |        |        |  
  5 ----  16 ----  27 ----  38 ----  49 ----  60 ----  71 ----  82 ----  93 ---- 104 ---- 115 
 |        |        |        |        |        |        |        |        |        |        |  
 |   31   |   32   |   33   |   34   |   35   |   36   |   37   |   38   |   39   |   40   |  
 |        |        |        |        |        |        |        |        |        |        |  
  4 ----  15 ----  26 ----  37 ----  48 ----  59 ----  70 ----  81 ----  92 ---- 103 ---- 114 
 |        |        |        |        |        |        |        |        |        |        |  
 |   21   |   22   |   23   |   24   |   25   |   26   |   27   |   28   |   29   |   30   |  
 |        |        |        |        |        |        |        |        |        |        |  
  3 ----  14 ----  25 ----  36 ----  47 ----  58 ----  69 ----  80 ----  91 ---- 102 ---- 113 
 |        |        |        |        |        |        |        |        |        |        |  
 |   11   |   12   |   13   |   14   |   15   |   16   |   17   |   18   |   19   |   20   | 
 |        |        |        |        |        |        |        |        |        |        |  
  2 ----  13 ----  24 ----  35 ----  46 ----  57 ----  68 ----  79 ----  90 ---- 101 ---- 112 
 |        |        |        |        |        |        |        |        |        |        |  
 |    1   |    2   |    3   |    4   |    5   |    6   |    7   |    8   |    9   |   10   |  
 |        |        |        |        |        |        |        |        |        |        |  
  1 ----  12 ----  23 ----  34 ----  45 ----  56 ----  67 ----  78 ----  89 ---- 100 ---- 111

Y  
|
|
|
o------ X
Z  
$- - - - - - - - - - - - - - - - - - - - - - - - - - - - - - - - - - - - - - - - - - - - - +
