PSHELL   1       1      3.       1               1

CQUAD4   1       1       1       2       103     102
CQUAD4   2       1       2       3       104     103
CQUAD4   3       1       3       4       105     104
CQUAD4   4       1       4       5       106     105
CQUAD4   5       1       5       6       107     106
CQUAD4   6       1       6       7       108     107
CQUAD4   7       1       7       8       109     108
CQUAD4   8       1       8       9       110     109
CQUAD4   9       1       9       10      111     110
CQUAD4   10      1       10      11      112     111
CQUAD4   11      1       11      12      113     112
CQUAD4   12      1       12      13      114     113
CQUAD4   13      1       13      14      115     114
CQUAD4   14      1       14      15      116     115
CQUAD4   15      1       15      16      117     116
CQUAD4   16      1       16      17      118     117
CQUAD4   17      1       17      18      119     118
CQUAD4   18      1       18      19      120     119
CQUAD4   19      1       19      20      121     120
CQUAD4   20      1       20      21      122     121
$ ... 4914 like lines cut
$CQUAD4   4935    1       4984    4985    10295   5085
$CQUAD4   4936    1       4985    4986    10296   10295
CQUAD4   4937    1       4986    4987    10297   10296
CQUAD4   4938    1       4987    4988    10298   10297
CQUAD4   4939    1       4988    4989    10299   10298
CQUAD4   4940    1       4989    4990    10300   10299
CQUAD4   4941    1       4990    4991    10301   10300
CQUAD4   4942    1       4991    4992    10302   10301
CQUAD4   4943    1       4992    4993    10303   10302
CQUAD4   4944    1       4993    4994    10304   10303
CQUAD4   4945    1       4994    4995    10305   10304
CQUAD4   4946    1       4995    4996    10306   10305
CQUAD4   4947    1       4996    4997    10307   10306
CQUAD4   4948    1       4997    4998    10308   10307
CQUAD4   4949    1       4998    4999    10309   10308
CQUAD4   4950    1       4999    5000    10310   10309
CQUAD4   4951    1       5000    5001    10311   10310
CQUAD4   4952    1       5001    5002    10312   10311
CQUAD4   4953    1       5002    5003    10313   10312
CQUAD4   4954    1       5003    5004    10314   10313
CQUAD4   4955    1       5004    5005    10315   10314
CQUAD4   4956    1       5005    5006    10316   10315
$ ... 8 like lines cut
$ CQUAD4   4965    1       5014    5015    10325   10324
$ CQUAD4   4966    1       5015    5016    5117    10325
CQUAD4   4967    1       5016    5017    5118    5117
CQUAD4   4968    1       5017    5018    5119    5118
CQUAD4   4969    1       5018    5019    5120    5119
CQUAD4   4970    1       5019    5020    5121    5120
CQUAD4   4971    1       5020    5021    5122    5121
CQUAD4   4972    1       5021    5022    5123    5122
CQUAD4   4973    1       5022    5023    5124    5123
CQUAD4   4974    1       5023    5024    5125    5124
CQUAD4   4975    1       5024    5025    5126    5125
CQUAD4   4976    1       5025    5026    5127    5126
CQUAD4   4977    1       5026    5027    5128    5127
CQUAD4   4978    1       5027    5028    5129    5128
CQUAD4   4979    1       5028    5029    5130    5129
CQUAD4   4980    1       5029    5030    5131    5130
CQUAD4   4981    1       5030    5031    5132    5131
CQUAD4   4982    1       5031    5032    5133    5132
CQUAD4   4983    1       5032    5033    5134    5133
CQUAD4   4984    1       5033    5034    5135    5134
CQUAD4   4985    1       5034    5035    5136    5135
CQUAD4   4986    1       5035    5036    5137    5136
$ ... 48 like lines cut
$CQUAD4   5035    1       5085    10295   5187    5186
$CQUAD4   5036    1       10295   10326   5188    5187
CQUAD4   5037    1       10326   10327   5189    5188
CQUAD4   5038    1       10327   10328   5190    5189
CQUAD4   5039    1       10328   10329   5191    5190
CQUAD4   5040    1       10329   10330   5192    5191
CQUAD4   5041    1       10330   10331   5193    5192
CQUAD4   5042    1       10331   10332   5194    5193
CQUAD4   5043    1       10332   10333   5195    5194
CQUAD4   5044    1       10333   10334   5196    5195
CQUAD4   5045    1       10334   10335   5197    5196
CQUAD4   5046    1       10335   10336   5198    5197
CQUAD4   5047    1       10336   10337   5199    5198
CQUAD4   5048    1       10337   10338   5200    5199
CQUAD4   5049    1       10338   10339   5201    5200
CQUAD4   5050    1       10339   10340   5202    5201
CQUAD4   5051    1       10340   10341   5203    5202
CQUAD4   5052    1       10341   10342   5204    5203
CQUAD4   5053    1       10342   10343   5205    5204
CQUAD4   5054    1       10343   10344   5206    5205
CQUAD4   5055    1       10344   10345   5207    5206
CQUAD4   5056    1       10345   10346   5208    5207
$ ... 8 like lines cut
$CQUAD4   5065    1       10354   10325   5217    5216
$CQUAD4   5066    1       10325   5117    5218    5217
CQUAD4   5067    1       5117    5118    5219    5218
CQUAD4   5068    1       5118    5119    5220    5219
CQUAD4   5069    1       5119    5120    5221    5220
CQUAD4   5070    1       5120    5121    5222    5221
CQUAD4   5071    1       5121    5122    5223    5222
CQUAD4   5072    1       5122    5123    5224    5223
CQUAD4   5073    1       5123    5124    5225    5224
CQUAD4   5074    1       5124    5125    5226    5225
CQUAD4   5075    1       5125    5126    5227    5226
CQUAD4   5076    1       5126    5127    5228    5227
CQUAD4   5077    1       5127    5128    5229    5228
CQUAD4   5078    1       5128    5129    5230    5229
CQUAD4   5079    1       5129    5130    5231    5230
CQUAD4   5080    1       5130    5131    5232    5231
CQUAD4   5081    1       5131    5132    5233    5232
CQUAD4   5082    1       5132    5133    5234    5233
CQUAD4   5083    1       5133    5134    5235    5234
CQUAD4   5084    1       5134    5135    5236    5235
CQUAD4   5085    1       5135    5136    5237    5236
CQUAD4   5086    1       5136    5137    5238    5237
$ ... 4914 like lines cut

MAT1     1      70000.          .3

GRID     1              -50.    -50.     0.
GRID     2              -49.    -50.     0.
GRID     3              -48.    -50.     0.
GRID     4              -47.    -50.     0.
GRID     5              -46.    -50.     0.
GRID     6              -45.    -50.     0.
GRID     7              -44.    -50.     0.
GRID     8              -43.    -50.     0.
GRID     9              -42.    -50.     0.
GRID     10             -40.9999-50.     0.
GRID     11             -40.    -50.     0.
GRID     12             -39.    -50.     0.
GRID     13             -38.    -50.     0.
GRID     14             -37.    -50.     0.
GRID     15             -36.    -50.     0.
GRID     16             -35.    -50.     0.
GRID     17             -34.    -50.     0.
GRID     18             -33.    -50.     0.
GRID     19             -32.    -50.     0.
GRID     20             -31.    -50.     0.
$ ... 10210 like lines cut

SPC1     2       23      1       THRU    101

SPC1     3       1       51      10151
SPC1     4       3       10151

FORCE    1       10101          5000.    0.     1.       0.
FORCE    1       10102          5000.    0.     1.       0.
FORCE    1       10102          5000.    0.     1.       0.
FORCE    1       10103          5000.    0.     1.       0.
FORCE    1       10103          5000.    0.     1.       0.
FORCE    1       10104          5000.    0.     1.       0.
FORCE    1       10104          5000.    0.     1.       0.
FORCE    1       10105          5000.    0.     1.       0.
FORCE    1       10105          5000.    0.     1.       0.
FORCE    1       10106          5000.    0.     1.       0.
FORCE    1       10106          5000.    0.     1.       0.
FORCE    1       10107          5000.    0.     1.       0.
FORCE    1       10107          5000.    0.     1.       0.
FORCE    1       10108          5000.    0.     1.       0.
FORCE    1       10108          5000.    0.     1.       0.
FORCE    1       10109          5000.    0.     1.       0.
FORCE    1       10109          5000.04  0.     1.       0.
FORCE    1       10110          5000.04  0.     1.       0.
FORCE    1       10110          4999.96  0.     1.       0.
FORCE    1       10111          4999.96  0.     1.       0.
$ ... 180 like lines cut
