$ NASTRAN Statements- - - - - - - - - - - - - - - - - - - - - - - - - - +
NASTRAN SYSTEM (210)=2                                                  | Remove line # in PUNCH
NASTRAN SYSTEM (319)=1                                                  | Extended Error Messages
$ - - - - - - - - - - - - - - - - - - - - - - - - - - - - - - - - - - - +

$ Executive Control Section - - - - - - - - - - - - - - - - - - - - - - +
SOL 101
CEND

$ Case Control Section- - - - - - - - - - - - - - - - - - - - - - - - - +
ECHO = NONE

TITLE = CASE STUDY #5 - PLATE GUYAN REDUCTION

$ DISPLACEMENT(PLOT,PRINT)=ALL
$ SPCFORCES(PLOT,PRINT)=ALL
$ STRAIN(PLOT,PRINT)=ALL
$ STRESS(PLOT,PRINT)=ALL
$ FORCE(PLOT,PRINT)=ALL
$ GPFORCE(PLOT,PRINT)=ALL

$ K2GG=KAAX
$ P2G=PAX

$ * * * * * * * * * * * * * * * * * * * * * * * * * * * * * * * * * * * *
$ * TENSION                                                             *
$ * * * * * * * * * * * * * * * * * * * * * * * * * * * * * * * * * * * *
SUBCASE 1000
   SUBTITLE=PLATE
   LABEL=PLATE
   SPC = 2
   LOAD = 2
   
$ Bulk Data - - - - - - - - - - - - - - - - - - - - - - - - - - - - - - +
BEGIN BULK
$1	2	3	4	5	6	7	8	9	0
ASET1    123456 318 	319	321	347	348	349	375 	
	 376 	377	403	404	405	431	432	433	
	 459 	460	461	487 	488	489	515	516 

PARAM	 AUTOSPC YES
PARAM    POST    -1
PARAM    EXTOUT  DMIGPCH

$1	2	3	4	5	6	7	8	9	0
PSHELL   1       1      5.       1               1

$1	2	3	4	5	6	7	8	9	0
$ CQUAD4   2       1       3       1       2       4
$ CQUAD4   3       1       5       3       4       6
$ CQUAD4   4       1       7       5       6       8
$ CQUAD4   5       1       9       7       8       10
$ CQUAD4   6       1       11      9       10      12
$ CQUAD4   7       1       13      11      12      14
$ CQUAD4   8       1       15      13      14      16
$ CQUAD4   9       1       17      15      16      18
$ CQUAD4   10      1       19      17      18      20
$ CQUAD4   11      1       21      19      20      22
$ CQUAD4   12      1       23      21      22      24
$ CQUAD4   13      1       25      23      24      26
$ CQUAD4   14      1       27      25      26      28
$ CQUAD4   15      1       29      27      28      30
$ CQUAD4   16      1       31      29      30      32
$ CQUAD4   17      1       33      31      32      34
$ CQUAD4   18      1       35      33      34      36
$ CQUAD4   19      1       37      35      36      38
$ CQUAD4   20      1       39      37      38      40
$ CQUAD4   21      1       41      39      40      42
$ ... 292 like lines cut
CQUAD4   340     1       518     529     530     519
CQUAD4   341     1       519     530     531     520
CQUAD4   342     1       520     531     532     521
CQUAD4   343     1       521     532     533     522
CQUAD4   344     1       522     533     534     523
CQUAD4   345     1       523     534     535     524
CQUAD4   346     1       524     535     536     525
CQUAD4   347     1       525     536     537     526
CQUAD4   348     1       526     537     538     527
CQUAD4   349     1       527     538     539     528
CQUAD4   350     1       529     540     541     530
CQUAD4   351     1       530     541     542     531
CQUAD4   352     1       531     542     543     532
CQUAD4   353     1       532     543     544     533
CQUAD4   354     1       533     544     545     534
CQUAD4   355     1       534     545     546     535
CQUAD4   356     1       535     546     547     536
CQUAD4   357     1       536     547     548     537
CQUAD4   358     1       537     548     549     538
CQUAD4   359     1       538     549     550     539
$ ... 144 like lines cut

$1	2	3	4	5	6	7	8	9	0
MAT1     1      70000.          .33	2.7-6

$ Nodes of the Entire Model
$1	2	3	4	5	6	7	8	9	0
$ GRID     1              55.     25.      0.
$ GRID     2              55.436  25.      0.
$ GRID     3              54.981  25.4358  0.
$ GRID     4              55.4153 25.4738  0.
$ GRID     5              54.924  25.8682  0.
$ GRID     6              55.3534 25.944   0.
$ GRID     7              54.8296 26.2941  0.
$ GRID     8              55.2508 26.4069  0.
$ GRID     9              54.6985 26.7101  0.
$ GRID     10             55.1082 26.8592  0.
$ GRID     11             54.5315 27.1131  0.
$ GRID     12             54.9267 27.2974  0.
$ GRID     13             54.3301 27.5     0.
$ GRID     14             54.7077 27.718   0.
$ GRID     15             54.0958 27.8679  0.
$ GRID     16             54.4529 28.118   0.
$ GRID     17             53.8302 28.2139  0.
$ GRID     18             54.1642 28.4942  0.
$ GRID     19             53.5355 28.5355  0.
$ GRID     20             53.8438 28.8438  0.
$ ... 124 like lines cut
$ $ GRID     147            55.436  25.      0.
$ GRID     149            56.308  25.      0.
$ GRID     151            56.0931 26.6326  0.
$ GRID     153            55.4629 28.154   0.
$ GRID     155            54.4604 29.4604  0.
$ GRID     157            53.154  30.4629  0.
$ GRID     159            51.6326 31.0931  0.
$ GRID     161            50.     31.308   0.
$ GRID     163            48.3674 31.0931  0.
$ GRID     165            46.846  30.4629  0.
$ GRID     167            45.5396 29.4604  0.
$ GRID     169            44.5371 28.154   0.
$ GRID     171            43.9069 26.6326  0.
$ GRID     173            43.692  25.      0.
$ GRID     175            43.9069 23.3674  0.
$ GRID     177            44.5371 21.846   0.
$ GRID     179            45.5396 20.5396  0.
$ GRID     181            46.846  19.5371  0.
$ GRID     183            48.3674 18.9069  0.
$ GRID     185            50.     18.692   0.
$ GRID     187            51.6326 18.9069  0.
$ ... 72 like lines cut
GRID     318            65.     40.      0.
GRID     319            60.     40.      0.
GRID     320            55.     40.      0.
GRID     321            50.     40.      0.
$ GRID     327            47.8061 32.5776  0.
$ GRID     328            45.705  32.0524  0.
$ GRID     329            43.783  31.217   0.
$ GRID     331            47.2449 34.062   0.
$ GRID     332            44.564  33.6419  0.
$ GRID     333            42.0264 32.9736  0.
$ GRID     335            46.6837 35.5465  0.
$ GRID     336            43.423  35.2314  0.
$ GRID     337            40.2698 34.7302  0.
$ GRID     339            46.1225 37.031   0.
$ GRID     340            42.282  36.821   0.
$ GRID     341            38.5132 36.4868  0.
$ GRID     343            45.5612 38.5155  0.
$ GRID     344            41.141  38.4105  0.
$ GRID     345            36.7566 38.2434  0.
GRID     347            45.     40.      0.
GRID     348            40.     40.      0.
GRID     349            35.     40.      0.
$ GRID     355            42.9476 29.295   0.
$ GRID     356            42.4225 27.1939  0.
$ GRID     357            42.2433 25.      0.
$ GRID     359            41.3581 30.436   0.
$ GRID     360            40.938  27.7551  0.
$ GRID     361            40.7947 25.      0.
$ GRID     363            39.7686 31.577   0.
$ GRID     364            39.4535 28.3163  0.
$ GRID     365            39.346  25.      0.
$ GRID     367            38.179  32.718   0.
$ GRID     368            37.969  28.8775  0.
$ GRID     369            37.8973 25.      0.
$ GRID     371            36.5895 33.859   0.
$ GRID     372            36.4845 29.4388  0.
$ GRID     373            36.4487 25.      0.
GRID     375            35.     35.      0.
GRID     376            35.     30.      0.
GRID     377            35.     25.      0.
$ GRID     383            42.4225 22.8061  0.
$ GRID     384            42.9476 20.705   0.
$ GRID     385            43.783  18.783   0.
$ GRID     387            40.938  22.2449  0.
$ GRID     388            41.3581 19.564   0.
$ GRID     389            42.0264 17.0264  0.
$ GRID     391            39.4535 21.6837  0.
$ GRID     392            39.7686 18.423   0.
$ GRID     393            40.2698 15.2698  0.
$ GRID     395            37.969  21.1225  0.
$ GRID     396            38.179  17.282   0.
$ GRID     397            38.5132 13.5132  0.
$ GRID     399            36.4845 20.5612  0.
$ GRID     400            36.5895 16.141   0.
$ GRID     401            36.7566 11.7566  0.
GRID     403            35.     20.      0.
GRID     404            35.     15.      0.
GRID     405            35.     10.      0.
$ GRID     411            45.705  17.9476  0.
$ GRID     412            47.8062 17.4225  0.
$ GRID     413            50.     17.2433  0.
$ GRID     415            44.564  16.3581  0.
$ GRID     416            47.2449 15.938   0.
$ GRID     417            50.     15.7947  0.
$ GRID     419            43.423  14.7686  0.
$ GRID     420            46.6837 14.4535  0.
$ GRID     421            50.     14.346   0.
$ GRID     423            42.282  13.179   0.
$ GRID     424            46.1225 12.969   0.
$ GRID     425            50.     12.8973  0.
$ GRID     427            41.141  11.5895  0.
$ GRID     428            45.5612 11.4845  0.
$ GRID     429            50.     11.4487  0.
GRID     431            40.     10.      0.
GRID     432            45.     10.      0.
GRID     433            50.     10.      0.
$ GRID     439            52.1939 17.4225  0.
$ GRID     440            54.295  17.9476  0.
$ GRID     441            56.217  18.783   0.
$ GRID     443            52.7551 15.938   0.
$ GRID     444            55.436  16.3581  0.
$ GRID     445            57.9736 17.0264  0.
$ GRID     447            53.3163 14.4535  0.
$ GRID     448            56.577  14.7686  0.
$ GRID     449            59.7302 15.2698  0.
$ GRID     451            53.8776 12.969   0.
$ GRID     452            57.718  13.179   0.
$ GRID     453            61.4868 13.5132  0.
$ GRID     455            54.4388 11.4845  0.
$ GRID     456            58.859  11.5895  0.
$ GRID     457            63.2434 11.7566  0.
GRID     459            55.     10.      0.
GRID     460            60.     10.      0.
GRID     461            65.     10.      0.
$ GRID     467            57.0524 20.705   0.
$ GRID     468            57.5776 22.8062  0.
$ GRID     469            57.7567 25.      0.
$ GRID     471            58.6419 19.564   0.
$ GRID     472            59.062  22.2449  0.
$ GRID     473            59.2053 25.      0.
$ GRID     475            60.2315 18.423   0.
$ GRID     476            60.5465 21.6837  0.
$ GRID     477            60.654  25.      0.
$ GRID     479            61.821  17.282   0.
$ GRID     480            62.031  21.1225  0.
$ GRID     481            62.1027 25.      0.
$ GRID     483            63.4105 16.141   0.
$ GRID     484            63.5155 20.5612  0.
$ GRID     485            63.5513 25.      0.
GRID     487            65.     15.      0.
GRID     488            65.     20.      0.
GRID     489            65.     25.      0.
$ GRID     495            57.5776 27.1939  0.
$ GRID     496            57.0524 29.295   0.
$ GRID     499            59.062  27.7551  0.
$ GRID     500            58.6419 30.436   0.
$ GRID     503            60.5465 28.3163  0.
$ GRID     504            60.2314 31.577   0.
$ GRID     507            62.031  28.8776  0.
$ GRID     508            61.821  32.718   0.
$ GRID     511            63.5155 29.4388  0.
$ GRID     512            63.4105 33.859   0.
GRID     515            65.     30.      0.
GRID     516            65.     35.      0.
GRID     518             0.      0.      0.
GRID     519             0.     5.       0.
GRID     520             0.     10.      0.
GRID     521             0.     15.      0.
GRID     522             0.     20.      0.
GRID     523             0.     25.      0.
GRID     524             0.     30.      0.
GRID     525             0.     35.      0.
GRID     526             0.     40.      0.
GRID     527             0.     45.      0.
GRID     528             0.     50.      0.
GRID     529            5.       0.      0.
GRID     530            5.      5.       0.
GRID     531            5.      10.      0.
GRID     532            5.      15.      0.
GRID     533            5.      20.      0.
GRID     534            5.      25.      0.
GRID     535            5.      30.      0.
$ ... 164 like lines cut

SPCADD   2       1
LOAD     2      1.      1.       1

SPC1     1       123456  518     THRU    528

FORCE    1       738            1250.   1.       0.      0.
FORCE    1       739            1250.   1.       0.      0.
FORCE    1       739            1250.   1.       0.      0.
FORCE    1       740            1250.   1.       0.      0.
FORCE    1       740            1250.   1.       0.      0.
FORCE    1       741            1250.   1.       0.      0.
FORCE    1       741            1250.   1.       0.      0.
FORCE    1       742            1250.   1.       0.      0.
FORCE    1       742            1250.   1.       0.      0.
FORCE    1       743            1250.   1.       0.      0.
FORCE    1       743            1250.   1.       0.      0.
FORCE    1       744            1250.   1.       0.      0.
FORCE    1       744            1250.   1.       0.      0.
FORCE    1       745            1250.   1.       0.      0.
FORCE    1       745            1250.   1.       0.      0.
FORCE    1       746            1250.   1.       0.      0.
FORCE    1       746            1250.   1.       0.      0.
FORCE    1       747            1250.   1.       0.      0.
FORCE    1       747            1250.   1.       0.      0.
FORCE    1       748            1250.   1.       0.      0.

ENDDATA
$ - - - - - - - - - - - - - - - - - - - - - - - - - - - - - - - - - - - +