$ NASTRAN Statements- - - - - - - - - - - - - - - - - - - - - - - - - - +
NASTRAN SYSTEM (210)=2                                                  | Remove line # in PUNCH
NASTRAN SYSTEM (319)=1                                                  | Extended Error Messages
$ - - - - - - - - - - - - - - - - - - - - - - - - - - - - - - - - - - - +

$ Executive Control Section - - - - - - - - - - - - - - - - - - - - - - +
SOL 101
CEND

$ Case Control Section- - - - - - - - - - - - - - - - - - - - - - - - - +
ECHO = NONE

TITLE = CASE STUDY #5 - PLATE GUYAN RESIDUAL

DISPLACEMENT(PLOT,PRINT)=ALL
SPCFORCES(PLOT,PRINT)=ALL
STRAIN(PLOT,PRINT)=ALL
STRESS(PLOT,PRINT)=ALL
FORCE(PLOT,PRINT)=ALL
GPFORCE(PLOT,PRINT)=ALL

K2GG=KAAX
P2G=PAX

$ * * * * * * * * * * * * * * * * * * * * * * * * * * * * * * * * * * * *
$ * TENSION                                                             *
$ * * * * * * * * * * * * * * * * * * * * * * * * * * * * * * * * * * * *
SUBCASE 1000
   SUBTITLE=PLATE
   LABEL=PLATE
$    SPC = 2
$    LOAD = 2

$ Bulk Data - - - - - - - - - - - - - - - - - - - - - - - - - - - - - - +
BEGIN BULK
$1	2	3	4	5	6	7	8	9	0
PARAM	 AUTOSPC YES
PARAM    POST    -1

INCLUDE 'SOL101_Case_Study_5_Reduction.pch'

$1	2	3	4	5	6	7	8	9	0
PSHELL   1       1      5.       1               1

$1	2	3	4	5	6	7	8	9	0
CQUAD4   2       1       3       1       2       4
CQUAD4   3       1       5       3       4       6
CQUAD4   4       1       7       5       6       8
CQUAD4   5       1       9       7       8       10
CQUAD4   6       1       11      9       10      12
CQUAD4   7       1       13      11      12      14
CQUAD4   8       1       15      13      14      16
CQUAD4   9       1       17      15      16      18
CQUAD4   10      1       19      17      18      20
CQUAD4   11      1       21      19      20      22
CQUAD4   12      1       23      21      22      24
CQUAD4   13      1       25      23      24      26
CQUAD4   14      1       27      25      26      28
CQUAD4   15      1       29      27      28      30
CQUAD4   16      1       31      29      30      32
CQUAD4   17      1       33      31      32      34
CQUAD4   18      1       35      33      34      36
CQUAD4   19      1       37      35      36      38
CQUAD4   20      1       39      37      38      40
CQUAD4   21      1       41      39      40      42
$ ... 292 like lines cut

$1	2	3	4	5	6	7	8	9	0
MAT1     1      70000.          .33	2.7-6

$ Nodes of the Entire Model
$1	2	3	4	5	6	7	8	9	0
GRID     1              55.     25.      0.
GRID     2              55.436  25.      0.
GRID     3              54.981  25.4358  0.
GRID     4              55.4153 25.4738  0.
GRID     5              54.924  25.8682  0.
GRID     6              55.3534 25.944   0.
GRID     7              54.8296 26.2941  0.
GRID     8              55.2508 26.4069  0.
GRID     9              54.6985 26.7101  0.
GRID     10             55.1082 26.8592  0.
GRID     11             54.5315 27.1131  0.
GRID     12             54.9267 27.2974  0.
GRID     13             54.3301 27.5     0.
GRID     14             54.7077 27.718   0.
GRID     15             54.0958 27.8679  0.
GRID     16             54.4529 28.118   0.
GRID     17             53.8302 28.2139  0.
GRID     18             54.1642 28.4942  0.
GRID     19             53.5355 28.5355  0.
GRID     20             53.8438 28.8438  0.
$ ... 124 like lines cut
$ GRID     147            55.436  25.      0.
GRID     149            56.308  25.      0.
GRID     151            56.0931 26.6326  0.
GRID     153            55.4629 28.154   0.
GRID     155            54.4604 29.4604  0.
GRID     157            53.154  30.4629  0.
GRID     159            51.6326 31.0931  0.
GRID     161            50.     31.308   0.
GRID     163            48.3674 31.0931  0.
GRID     165            46.846  30.4629  0.
GRID     167            45.5396 29.4604  0.
GRID     169            44.5371 28.154   0.
GRID     171            43.9069 26.6326  0.
GRID     173            43.692  25.      0.
GRID     175            43.9069 23.3674  0.
GRID     177            44.5371 21.846   0.
GRID     179            45.5396 20.5396  0.
GRID     181            46.846  19.5371  0.
GRID     183            48.3674 18.9069  0.
GRID     185            50.     18.692   0.
GRID     187            51.6326 18.9069  0.
$ ... 196 like lines cut

ENDDATA
$ - - - - - - - - - - - - - - - - - - - - - - - - - - - - - - - - - - - +