$ - - - - - - - - - - - - - - - - - - - - - - - - - - - - - - - - - - - +
$       Case Study #1 Cantilever Beam                                   |
$ - - - - - - - - - - - - - - - - - - - - - - - - - - - - - - - - - - - +

$ 9 Nodes - - - - - - - - - - - - - - - - - - - - - - - - - - - - - - - +
$1      2       3       4       5       6       7       8       9       0
GRID    1       0       0.00    0.00    0.00
GRID    2       0       250.00  0.00    0.00
GRID    3       0       500.00  0.00    0.00
GRID    4       0       750.00  0.00    0.00
GRID    5       0       1000.00 0.00    0.00
GRID    6       0       1250.00 0.00    0.00
GRID    7       0       1500.00 0.00    0.00
GRID    8       0       1750.00 0.00    0.00
GRID    9       0       2000.00 0.00    0.00

$ 8 Elements- - - - - - - - - - - - - - - - - - - - - - - - - - - - - - +
$1      2       3       4       5       6       7       8       9       0
CBEAM   1       1       1       2       0.      1.      0.
CBEAM   2       1       2       3       0.      1.      0.
CBEAM   3       1       3       4       0.      1.      0.
CBEAM   4       1       4       5       0.      1.      0.
CBEAM   5       1       5       6       0.      1.      0.
CBEAM   6       1       6       7       0.      1.      0.
CBEAM   7       1       7       8       0.      1.      0.
CBEAM   8       1       8       9       0.      1.      0.

$ Property- - - - - - - - - - - - - - - - - - - - - - - - - - - - - - - +
$1      2       3       4       5       6       7       8       9       0
$ S =3600 mm^2
$ Iz=1080000 mm^2 x mm^2
PBEAM   1       1       3600.   1.080E+6100.            1822500.
        30.00   0.000   -30.00  0.000
        0.833   0.833

$ Materials - - - - - - - - - - - - - - - - - - - - - - - - - - - - - - +
$1      2       3       4       5       6       7       8       9       0
MAT1    1       200000. 76923.  0.30    7.8E-6
$ - - - - - - - - - - - - - - - - - - - - - - - - - - - - - - - - - - - +
